*SPEF "ieee 1481-1999"
*DESIGN "manhattandetector"
*DATE "11:11:11 Fri 11 11, 1111"
*VENDOR "OpenRCX"
*PROGRAM "Parallel Extraction"
*VERSION "1.0"
*DESIGN_FLOW "NAME_SCOPE LOCAL" "PIN_CAP NONE"
*DIVIDER /
*DELIMITER :
*BUS_DELIMITER []
*T_UNIT 1 NS
*C_UNIT 1 PF
*R_UNIT 1 OHM
*L_UNIT 1 HENRY

*NAME_MAP
*3 clock
*4 detector_out
*5 reset
*6 sequence_in
*7 _00_
*8 _01_
*9 _02_
*10 _03_
*11 _04_
*12 _05_
*13 _06_
*14 _07_
*15 _08_
*16 _09_
*17 _10_
*18 _11_
*19 _12_
*20 _13_
*21 clknet_0_clock
*22 clknet_1_0__leaf_clock
*23 clknet_1_1__leaf_clock
*24 current_state\[0\]
*25 current_state\[1\]
*26 current_state\[2\]
*27 net1
*28 net2
*29 net3
*30 next_state\[0\]
*31 next_state\[1\]
*32 next_state\[2\]
*33 ANTENNA_clkbuf_0_clock_A
*34 ANTENNA_input1_A
*35 ANTENNA_input2_A
*36 FILLER_0_0_15
*37 FILLER_0_0_27
*38 FILLER_0_0_29
*39 FILLER_0_0_3
*40 FILLER_0_0_41
*41 FILLER_0_0_55
*42 FILLER_0_0_57
*43 FILLER_0_0_61
*44 FILLER_0_10_20
*45 FILLER_0_10_29
*46 FILLER_0_10_3
*47 FILLER_0_10_41
*48 FILLER_0_10_53
*49 FILLER_0_10_57
*50 FILLER_0_10_62
*51 FILLER_0_1_24
*52 FILLER_0_1_28
*53 FILLER_0_1_3
*54 FILLER_0_1_33
*55 FILLER_0_1_39
*56 FILLER_0_1_51
*57 FILLER_0_1_55
*58 FILLER_0_1_57
*59 FILLER_0_2_15
*60 FILLER_0_2_27
*61 FILLER_0_2_29
*62 FILLER_0_2_3
*63 FILLER_0_2_34
*64 FILLER_0_2_51
*65 FILLER_0_3_24
*66 FILLER_0_3_3
*67 FILLER_0_3_35
*68 FILLER_0_3_45
*69 FILLER_0_3_53
*70 FILLER_0_3_57
*71 FILLER_0_4_15
*72 FILLER_0_4_18
*73 FILLER_0_4_26
*74 FILLER_0_4_29
*75 FILLER_0_4_3
*76 FILLER_0_4_36
*77 FILLER_0_4_42
*78 FILLER_0_4_46
*79 FILLER_0_4_50
*80 FILLER_0_4_55
*81 FILLER_0_5_11
*82 FILLER_0_5_16
*83 FILLER_0_5_3
*84 FILLER_0_5_38
*85 FILLER_0_5_50
*86 FILLER_0_5_57
*87 FILLER_0_6_27
*88 FILLER_0_6_29
*89 FILLER_0_6_3
*90 FILLER_0_6_33
*91 FILLER_0_6_45
*92 FILLER_0_6_57
*93 FILLER_0_7_15
*94 FILLER_0_7_3
*95 FILLER_0_7_38
*96 FILLER_0_7_47
*97 FILLER_0_7_52
*98 FILLER_0_7_57
*99 FILLER_0_8_20
*100 FILLER_0_8_25
*101 FILLER_0_8_29
*102 FILLER_0_8_3
*103 FILLER_0_8_52
*104 FILLER_0_8_60
*105 FILLER_0_9_15
*106 FILLER_0_9_27
*107 FILLER_0_9_3
*108 FILLER_0_9_39
*109 FILLER_0_9_51
*110 FILLER_0_9_55
*111 FILLER_0_9_57
*112 PHY_EDGE_ROW_0_Left_11
*113 PHY_EDGE_ROW_0_Right_0
*114 PHY_EDGE_ROW_10_Left_21
*115 PHY_EDGE_ROW_10_Right_10
*116 PHY_EDGE_ROW_1_Left_12
*117 PHY_EDGE_ROW_1_Right_1
*118 PHY_EDGE_ROW_2_Left_13
*119 PHY_EDGE_ROW_2_Right_2
*120 PHY_EDGE_ROW_3_Left_14
*121 PHY_EDGE_ROW_3_Right_3
*122 PHY_EDGE_ROW_4_Left_15
*123 PHY_EDGE_ROW_4_Right_4
*124 PHY_EDGE_ROW_5_Left_16
*125 PHY_EDGE_ROW_5_Right_5
*126 PHY_EDGE_ROW_6_Left_17
*127 PHY_EDGE_ROW_6_Right_6
*128 PHY_EDGE_ROW_7_Left_18
*129 PHY_EDGE_ROW_7_Right_7
*130 PHY_EDGE_ROW_8_Left_19
*131 PHY_EDGE_ROW_8_Right_8
*132 PHY_EDGE_ROW_9_Left_20
*133 PHY_EDGE_ROW_9_Right_9
*134 TAP_TAPCELL_ROW_0_22
*135 TAP_TAPCELL_ROW_0_23
*136 TAP_TAPCELL_ROW_10_33
*137 TAP_TAPCELL_ROW_10_34
*138 TAP_TAPCELL_ROW_1_24
*139 TAP_TAPCELL_ROW_2_25
*140 TAP_TAPCELL_ROW_3_26
*141 TAP_TAPCELL_ROW_4_27
*142 TAP_TAPCELL_ROW_5_28
*143 TAP_TAPCELL_ROW_6_29
*144 TAP_TAPCELL_ROW_7_30
*145 TAP_TAPCELL_ROW_8_31
*146 TAP_TAPCELL_ROW_9_32
*147 _14_
*148 _15_
*149 _16_
*150 _17_
*151 _18_
*152 _19_
*153 _20_
*154 _21_
*155 _22_
*156 _23_
*157 _24_
*158 _25_
*159 _26_
*160 _27_
*161 _28_
*162 _29_
*163 _30_
*164 _31_
*165 _32_
*166 _33_
*167 _34_
*168 clkbuf_0_clock
*169 clkbuf_1_0__f_clock
*170 clkbuf_1_1__f_clock
*171 input1
*172 input2
*173 output3

*PORTS
clock I
detector_out O
reset I
sequence_in I

*D_NET *3 0.00396184
*CONN
*P clock I
*I *33:DIODE I *D sky130_fd_sc_hd__diode_2
*I *168:A I *D sky130_fd_sc_hd__clkbuf_16
*CAP
1 clock 0.00167515
2 *33:DIODE 0
3 *168:A 0.00019518
4 *3:9 0.00187033
5 *168:A *163:A 0.000111383
6 *168:A *167:RESET_B 0.000109809
7 *168:A *169:A 0
*RES
1 clock *3:9 32.7321 
2 *3:9 *168:A 22.8357 
3 *3:9 *33:DIODE 9.3 
*END

*D_NET *4 0.00219032
*CONN
*P detector_out O
*I *173:X O *D sky130_fd_sc_hd__buf_12
*CAP
1 detector_out 0.00109516
2 *173:X 0.00109516
*RES
1 *173:X detector_out 29.3289 
*END

*D_NET *5 0.00166566
*CONN
*P reset I
*I *171:A I *D sky130_fd_sc_hd__clkbuf_2
*I *34:DIODE I *D sky130_fd_sc_hd__diode_2
*CAP
1 reset 0.000699327
2 *171:A 0
3 *34:DIODE 0.000133504
4 *5:9 0.00083283
*RES
1 reset *5:9 17.9643 
2 *5:9 *34:DIODE 11.4786 
3 *5:9 *171:A 9.3 
*END

*D_NET *6 0.00158143
*CONN
*P sequence_in I
*I *172:A I *D sky130_fd_sc_hd__dlymetal6s2s_1
*I *35:DIODE I *D sky130_fd_sc_hd__diode_2
*CAP
1 sequence_in 0.000595869
2 *172:A 0.000194847
3 *35:DIODE 0
4 *6:11 0.000790716
*RES
1 sequence_in *6:11 15.6456 
2 *6:11 *35:DIODE 9.3 
3 *6:11 *172:A 12.6214 
*END

*D_NET *7 0.000436713
*CONN
*I *165:RESET_B I *D sky130_fd_sc_hd__dfrtp_2
*I *161:Y O *D sky130_fd_sc_hd__inv_2
*CAP
1 *165:RESET_B 0.000177615
2 *161:Y 0.000177615
3 *165:RESET_B *24:10 2.51837e-05
4 *165:RESET_B *27:14 0
5 *165:RESET_B *27:16 5.62995e-05
*RES
1 *161:Y *165:RESET_B 21.0589 
*END

*D_NET *8 0.000648114
*CONN
*I *166:RESET_B I *D sky130_fd_sc_hd__dfrtp_1
*I *162:Y O *D sky130_fd_sc_hd__inv_2
*CAP
1 *166:RESET_B 0.000296442
2 *162:Y 0.000296442
3 *166:RESET_B *160:A 0
4 *166:RESET_B *162:A 0
5 *166:RESET_B *163:A 0
6 *166:RESET_B *164:CLK 5.52302e-05
7 *166:RESET_B *164:D 0
8 *166:RESET_B *170:A 0
9 *166:RESET_B *25:8 0
*RES
1 *162:Y *166:RESET_B 23.2107 
*END

*D_NET *9 0.000464463
*CONN
*I *167:RESET_B I *D sky130_fd_sc_hd__dfrtp_1
*I *163:Y O *D sky130_fd_sc_hd__inv_2
*CAP
1 *167:RESET_B 0.000177327
2 *163:Y 0.000177327
3 *167:RESET_B *166:CLK 0
4 *167:RESET_B *169:A 0
5 *168:A *167:RESET_B 0.000109809
*RES
1 *163:Y *167:RESET_B 22.0679 
*END

*D_NET *10 0.00243408
*CONN
*I *164:D I *D sky130_fd_sc_hd__dfxtp_1
*I *160:Y O *D sky130_fd_sc_hd__nor4b_1
*CAP
1 *164:D 0.000811408
2 *160:Y 0.000811408
3 *164:D *160:A 6.4443e-05
4 *164:D *173:A 3.17321e-05
5 *164:D *27:16 0.000143652
6 *164:D *27:20 0.000571434
7 *166:RESET_B *164:D 0
*RES
1 *160:Y *164:D 41.9795 
*END

*D_NET *11 0.00396295
*CONN
*I *158:A0 I *D sky130_fd_sc_hd__mux2_1
*I *149:B I *D sky130_fd_sc_hd__nor2_1
*I *150:B I *D sky130_fd_sc_hd__nand2_1
*I *155:A2 I *D sky130_fd_sc_hd__o21ai_1
*I *152:A2 I *D sky130_fd_sc_hd__o32ai_1
*I *153:A2 I *D sky130_fd_sc_hd__a21oi_1
*I *147:X O *D sky130_fd_sc_hd__clkbuf_2
*CAP
1 *158:A0 0.000150615
2 *149:B 0.000274833
3 *150:B 3.09742e-05
4 *155:A2 9.27242e-05
5 *152:A2 0
6 *153:A2 8.33701e-05
7 *147:X 0
8 *11:36 0.000123698
9 *11:34 0.000518268
10 *11:23 0.000359669
11 *11:17 0.000643655
12 *11:4 0.000460176
13 *149:B *149:A 4.06366e-05
14 *149:B *150:A 3.76337e-05
15 *149:B *151:B1 5.79582e-06
16 *149:B *155:B1 3.96158e-05
17 *149:B *24:31 0.000108766
18 *150:B *155:B1 4.27437e-05
19 *150:B *24:31 2.59355e-05
20 *153:A2 *156:A0 6.65398e-05
21 *155:A2 *155:A1 5.49544e-05
22 *155:A2 *155:B1 0.000167664
23 *155:A2 *156:S 2.1806e-05
24 *155:A2 *159:B1 5.33005e-05
25 *155:A2 *24:31 3.6346e-05
26 *158:A0 *158:A1 1.24368e-05
27 *158:A0 *159:B1 9.33978e-07
28 *11:17 *159:B1 4.48188e-06
29 *11:23 *159:B1 7.54868e-05
30 *11:23 *12:12 6.31313e-05
31 *11:23 *24:39 0
32 *11:34 *152:B1 7.32756e-05
33 *11:34 *155:B1 5.47064e-05
34 *11:34 *24:31 0.000206029
35 *11:34 *24:33 3.27526e-05
*RES
1 *147:X *11:4 9.3 
2 *11:4 *153:A2 19.9429 
3 *11:4 *11:17 4.23214 
4 *11:17 *11:23 11.5536 
5 *11:23 *152:A2 9.3 
6 *11:23 *11:34 9.01786 
7 *11:34 *11:36 4.5 
8 *11:36 *155:A2 11.8893 
9 *11:36 *150:B 10.2464 
10 *11:34 *149:B 19.1214 
11 *11:17 *158:A0 11.0679 
*END

*D_NET *12 0.00195378
*CONN
*I *152:A3 I *D sky130_fd_sc_hd__o32ai_1
*I *159:A1 I *D sky130_fd_sc_hd__o21a_1
*I *148:Y O *D sky130_fd_sc_hd__nor2_1
*CAP
1 *152:A3 8.22855e-05
2 *159:A1 0.000303618
3 *148:Y 0.000266549
4 *12:12 0.000652453
5 *152:A3 *152:B1 2.2339e-05
6 *152:A3 *152:B2 6.05161e-06
7 *159:A1 *152:B2 4.58976e-05
8 *159:A1 *156:A0 0
9 *159:A1 *156:S 3.51554e-05
10 *159:A1 *157:A 0.000205786
11 *159:A1 *159:A2 0.000121254
12 *159:A1 *159:B1 0
13 *12:12 *153:A1 1.64616e-05
14 *12:12 *156:A0 0
15 *12:12 *159:B1 7.6997e-05
16 *12:12 *24:39 5.57989e-05
17 *11:23 *12:12 6.31313e-05
*RES
1 *148:Y *12:12 23.1214 
2 *12:12 *159:A1 23.6393 
3 *12:12 *152:A3 10.5679 
*END

*D_NET *13 0.000347487
*CONN
*I *151:A2 I *D sky130_fd_sc_hd__o21a_1
*I *149:Y O *D sky130_fd_sc_hd__nor2_1
*CAP
1 *151:A2 0.000137838
2 *149:Y 0.000137838
3 *151:A2 *151:A1 2.89114e-05
4 *151:A2 *28:21 4.46186e-06
5 *151:A2 *28:38 3.84385e-05
*RES
1 *149:Y *151:A2 30.1893 
*END

*D_NET *14 0.0016627
*CONN
*I *160:C I *D sky130_fd_sc_hd__nor4b_1
*I *151:B1 I *D sky130_fd_sc_hd__o21a_1
*I *150:Y O *D sky130_fd_sc_hd__nand2_1
*CAP
1 *160:C 0.000442213
2 *151:B1 0.000161687
3 *150:Y 0
4 *14:6 0.0006039
5 *151:B1 *151:A1 3.18676e-05
6 *151:B1 *152:A1 5.52302e-05
7 *151:B1 *24:31 0.000114121
8 *151:B1 *28:38 6.19181e-05
9 *160:C *27:16 0.000185964
10 *149:B *151:B1 5.79582e-06
*RES
1 *150:Y *14:6 13.8 
2 *14:6 *151:B1 17.4964 
3 *14:6 *160:C 22.0679 
*END

*D_NET *15 0.000723609
*CONN
*I *152:B1 I *D sky130_fd_sc_hd__o32ai_1
*I *151:X O *D sky130_fd_sc_hd__o21a_1
*CAP
1 *152:B1 0.000201035
2 *151:X 0.000201035
3 *152:B1 *151:A1 5.52302e-05
4 *152:B1 *152:A1 7.65308e-05
5 *152:B1 *152:B2 9.41642e-05
6 *152:A3 *152:B1 2.2339e-05
7 *11:34 *152:B1 7.32756e-05
*RES
1 *151:X *152:B1 22.975 
*END

*D_NET *16 0.000910901
*CONN
*I *156:A0 I *D sky130_fd_sc_hd__mux2_1
*I *153:Y O *D sky130_fd_sc_hd__a21oi_1
*CAP
1 *156:A0 0.000326391
2 *153:Y 0.000326391
3 *156:A0 *148:A 1.74352e-05
4 *156:A0 *153:A1 1.04232e-05
5 *156:A0 *156:S 1.19402e-05
6 *156:A0 *17:12 0.000146474
7 *156:A0 *25:14 0
8 *156:A0 *25:20 5.30637e-06
9 *153:A2 *156:A0 6.65398e-05
10 *159:A1 *156:A0 0
11 *12:12 *156:A0 0
*RES
1 *153:Y *156:A0 33.85 
*END

*D_NET *17 0.00149344
*CONN
*I *159:A2 I *D sky130_fd_sc_hd__o21a_1
*I *156:A1 I *D sky130_fd_sc_hd__mux2_1
*I *154:X O *D sky130_fd_sc_hd__and2b_1
*CAP
1 *159:A2 0.00023717
2 *156:A1 0
3 *154:X 0.000230037
4 *17:12 0.000467207
5 *159:A2 *152:B2 9.61472e-05
6 *159:A2 *156:S 7.54868e-05
7 *159:A2 *25:8 0
8 *17:12 *147:A 8.07313e-05
9 *17:12 *156:S 0
10 *17:12 *25:8 2.19778e-05
11 *17:12 *25:14 1.69497e-05
12 *156:A0 *17:12 0.000146474
13 *159:A1 *159:A2 0.000121254
*RES
1 *154:X *17:12 22.2107 
2 *17:12 *156:A1 9.3 
3 *17:12 *159:A2 22.1214 
*END

*D_NET *18 0.00168594
*CONN
*I *156:S I *D sky130_fd_sc_hd__mux2_1
*I *155:Y O *D sky130_fd_sc_hd__o21ai_1
*CAP
1 *156:S 0.000510505
2 *155:Y 0.000510505
3 *156:S *152:B2 0.000216995
4 *156:S *159:B1 0.000303542
5 *156:S *25:8 0
6 *155:A2 *156:S 2.1806e-05
7 *156:A0 *156:S 1.19402e-05
8 *159:A1 *156:S 3.51554e-05
9 *159:A2 *156:S 7.54868e-05
10 *17:12 *156:S 0
*RES
1 *155:Y *156:S 35.9929 
*END

*D_NET *19 0.00201461
*CONN
*I *157:A I *D sky130_fd_sc_hd__clkbuf_1
*I *156:X O *D sky130_fd_sc_hd__mux2_1
*CAP
1 *157:A 0.000511871
2 *156:X 0.000511871
3 *157:A *152:B2 0.0001826
4 *157:A *163:A 0
5 *157:A *165:D 0.000602481
6 *159:A1 *157:A 0.000205786
*RES
1 *156:X *157:A 39.6714 
*END

*D_NET *20 0.00159883
*CONN
*I *159:B1 I *D sky130_fd_sc_hd__o21a_1
*I *158:X O *D sky130_fd_sc_hd__mux2_1
*CAP
1 *159:B1 0.000437024
2 *158:X 0.000437024
3 *159:B1 *155:A1 1.98839e-05
4 *159:B1 *165:D 0.000190152
5 *155:A2 *159:B1 5.33005e-05
6 *156:S *159:B1 0.000303542
7 *158:A0 *159:B1 9.33978e-07
8 *159:A1 *159:B1 0
9 *11:17 *159:B1 4.48188e-06
10 *11:23 *159:B1 7.54868e-05
11 *12:12 *159:B1 7.6997e-05
*RES
1 *158:X *159:B1 36.4036 
*END

*D_NET *21 0.0032256
*CONN
*I *169:A I *D sky130_fd_sc_hd__clkbuf_16
*I *170:A I *D sky130_fd_sc_hd__clkbuf_16
*I *168:X O *D sky130_fd_sc_hd__clkbuf_16
*CAP
1 *169:A 0.000427107
2 *170:A 0.000396447
3 *168:X 0.000279792
4 *21:6 0.00110335
5 *169:A *167:D 0.000153054
6 *169:A *25:8 0.000118739
7 *169:A *25:14 6.77077e-05
8 *169:A *25:20 0.000108848
9 *169:A *26:14 3.92757e-05
10 *170:A *163:A 0.000230475
11 *170:A *25:8 0
12 *21:6 *163:A 0.000300804
13 *166:RESET_B *170:A 0
14 *167:RESET_B *169:A 0
15 *168:A *169:A 0
*RES
1 *168:X *21:6 13.1214 
2 *21:6 *170:A 24.8536 
3 *21:6 *169:A 28.4429 
*END

*D_NET *22 0.0016907
*CONN
*I *166:CLK I *D sky130_fd_sc_hd__dfrtp_1
*I *167:CLK I *D sky130_fd_sc_hd__dfrtp_1
*I *169:X O *D sky130_fd_sc_hd__clkbuf_16
*CAP
1 *166:CLK 0.000483496
2 *167:CLK 0
3 *169:X 0.000361852
4 *22:10 0.000845348
5 *167:RESET_B *166:CLK 0
*RES
1 *169:X *22:10 19.5321 
2 *22:10 *167:CLK 13.8 
3 *22:10 *166:CLK 22.2643 
*END

*D_NET *23 0.00120332
*CONN
*I *165:CLK I *D sky130_fd_sc_hd__dfrtp_2
*I *164:CLK I *D sky130_fd_sc_hd__dfxtp_1
*I *170:X O *D sky130_fd_sc_hd__clkbuf_16
*CAP
1 *165:CLK 1.99857e-05
2 *164:CLK 0.000290413
3 *170:X 0.000105704
4 *23:14 0.000416103
5 *164:CLK *162:A 0.000274288
6 *23:14 *162:A 4.15914e-05
7 *166:RESET_B *164:CLK 5.52302e-05
*RES
1 *170:X *23:14 20.3 
2 *23:14 *164:CLK 14.7821 
3 *23:14 *165:CLK 9.72857 
*END

*D_NET *24 0.00586365
*CONN
*I *160:D_N I *D sky130_fd_sc_hd__nor4b_1
*I *151:A1 I *D sky130_fd_sc_hd__o21a_1
*I *158:A1 I *D sky130_fd_sc_hd__mux2_1
*I *148:B I *D sky130_fd_sc_hd__nor2_1
*I *153:A1 I *D sky130_fd_sc_hd__a21oi_1
*I *155:A1 I *D sky130_fd_sc_hd__o21ai_1
*I *165:Q O *D sky130_fd_sc_hd__dfrtp_2
*CAP
1 *160:D_N 1.21645e-05
2 *151:A1 0.000161899
3 *158:A1 7.44292e-05
4 *148:B 0
5 *153:A1 0.000181318
6 *155:A1 7.02111e-05
7 *165:Q 0.000389161
8 *24:39 0.000550845
9 *24:33 0.000551386
10 *24:31 0.000530814
11 *24:14 0.000622808
12 *24:10 0.000692438
13 *151:A1 *152:A1 2.95641e-05
14 *153:A1 *148:A 0.000131409
15 *160:D_N *160:A 5.49544e-05
16 *160:D_N *27:20 5.49544e-05
17 *24:10 *165:D 0.000214342
18 *24:14 *165:D 0.000564125
19 *24:31 *155:B1 0.000141729
20 *24:31 *28:21 0
21 *24:33 *28:8 0
22 *24:33 *28:21 0
23 *24:39 *28:8 0
24 *149:B *24:31 0.000108766
25 *150:B *24:31 2.59355e-05
26 *151:A2 *151:A1 2.89114e-05
27 *151:B1 *151:A1 3.18676e-05
28 *151:B1 *24:31 0.000114121
29 *152:B1 *151:A1 5.52302e-05
30 *155:A2 *155:A1 5.49544e-05
31 *155:A2 *24:31 3.6346e-05
32 *156:A0 *153:A1 1.04232e-05
33 *158:A0 *158:A1 1.24368e-05
34 *159:B1 *155:A1 1.98839e-05
35 *165:RESET_B *24:10 2.51837e-05
36 *11:23 *24:39 0
37 *11:34 *24:31 0.000206029
38 *11:34 *24:33 3.27526e-05
39 *12:12 *153:A1 1.64616e-05
40 *12:12 *24:39 5.57989e-05
*RES
1 *165:Q *24:10 20.8893 
2 *24:10 *24:14 11.6071 
3 *24:14 *155:A1 10.675 
4 *24:14 *24:31 10.9821 
5 *24:31 *24:33 1.94643 
6 *24:33 *24:39 10.4643 
7 *24:39 *153:A1 13.1571 
8 *24:39 *148:B 9.3 
9 *24:33 *158:A1 15.0679 
10 *24:31 *151:A1 16.8179 
11 *24:10 *160:D_N 14.3357 
*END

*D_NET *25 0.00482846
*CONN
*I *160:A I *D sky130_fd_sc_hd__nor4b_1
*I *152:B2 I *D sky130_fd_sc_hd__o32ai_1
*I *154:B I *D sky130_fd_sc_hd__and2b_1
*I *148:A I *D sky130_fd_sc_hd__nor2_1
*I *153:B1 I *D sky130_fd_sc_hd__a21oi_1
*I *166:Q O *D sky130_fd_sc_hd__dfrtp_1
*CAP
1 *160:A 0.000469216
2 *152:B2 0.000268466
3 *154:B 0
4 *148:A 0.00017581
5 *153:B1 0
6 *166:Q 0
7 *25:20 0.000398079
8 *25:14 0.000339174
9 *25:8 0.000755333
10 *25:6 0.000839177
11 *160:A *163:A 0
12 *160:A *27:20 0.000254293
13 *25:8 *163:A 0
14 *25:8 *167:D 6.16744e-05
15 *25:14 *167:D 1.76135e-05
16 *152:A3 *152:B2 6.05161e-06
17 *152:B1 *152:B2 9.41642e-05
18 *153:A1 *148:A 0.000131409
19 *156:A0 *148:A 1.74352e-05
20 *156:A0 *25:14 0
21 *156:A0 *25:20 5.30637e-06
22 *156:S *152:B2 0.000216995
23 *156:S *25:8 0
24 *157:A *152:B2 0.0001826
25 *159:A1 *152:B2 4.58976e-05
26 *159:A2 *152:B2 9.61472e-05
27 *159:A2 *25:8 0
28 *160:D_N *160:A 5.49544e-05
29 *164:D *160:A 6.4443e-05
30 *166:RESET_B *160:A 0
31 *166:RESET_B *25:8 0
32 *169:A *25:8 0.000118739
33 *169:A *25:14 6.77077e-05
34 *169:A *25:20 0.000108848
35 *170:A *25:8 0
36 *17:12 *25:8 2.19778e-05
37 *17:12 *25:14 1.69497e-05
*RES
1 *166:Q *25:6 13.8 
2 *25:6 *25:8 8.01786 
3 *25:8 *25:14 2.91071 
4 *25:14 *25:20 8.82143 
5 *25:20 *153:B1 9.3 
6 *25:20 *148:A 12.7286 
7 *25:14 *154:B 13.8 
8 *25:8 *152:B2 21.3357 
9 *25:6 *160:A 22.2643 
*END

*D_NET *26 0.00105001
*CONN
*I *147:A I *D sky130_fd_sc_hd__clkbuf_2
*I *154:A_N I *D sky130_fd_sc_hd__and2b_1
*I *167:Q O *D sky130_fd_sc_hd__dfrtp_1
*CAP
1 *147:A 0.000267742
2 *154:A_N 0
3 *167:Q 0.000172069
4 *26:14 0.000439811
5 *26:14 *167:D 5.03772e-05
6 *169:A *26:14 3.92757e-05
7 *17:12 *147:A 8.07313e-05
*RES
1 *167:Q *26:14 21.0143 
2 *26:14 *154:A_N 9.3 
3 *26:14 *147:A 13.9607 
*END

*D_NET *27 0.00539703
*CONN
*I *161:A I *D sky130_fd_sc_hd__inv_2
*I *160:B I *D sky130_fd_sc_hd__nor4b_1
*I *162:A I *D sky130_fd_sc_hd__inv_2
*I *163:A I *D sky130_fd_sc_hd__inv_2
*I *171:X O *D sky130_fd_sc_hd__clkbuf_2
*CAP
1 *161:A 0
2 *160:B 0
3 *162:A 0.000225307
4 *163:A 0.000567794
5 *171:X 0.000565032
6 *27:20 0.000911141
7 *27:16 0.000227811
8 *27:14 0.000674803
9 *162:A *165:D 0
10 *163:A *165:D 0
11 *157:A *163:A 0
12 *160:A *163:A 0
13 *160:A *27:20 0.000254293
14 *160:C *27:16 0.000185964
15 *160:D_N *27:20 5.49544e-05
16 *164:CLK *162:A 0.000274288
17 *164:D *27:16 0.000143652
18 *164:D *27:20 0.000571434
19 *165:RESET_B *27:14 0
20 *165:RESET_B *27:16 5.62995e-05
21 *166:RESET_B *162:A 0
22 *166:RESET_B *163:A 0
23 *168:A *163:A 0.000111383
24 *170:A *163:A 0.000230475
25 *21:6 *163:A 0.000300804
26 *23:14 *162:A 4.15914e-05
27 *25:8 *163:A 0
*RES
1 *171:X *27:14 28.2286 
2 *27:14 *27:16 3.41071 
3 *27:16 *27:20 9.96429 
4 *27:20 *163:A 25.1929 
5 *27:20 *162:A 18.6393 
6 *27:16 *160:B 9.3 
7 *27:14 *161:A 9.3 
*END

*D_NET *28 0.00327887
*CONN
*I *149:A I *D sky130_fd_sc_hd__nor2_1
*I *150:A I *D sky130_fd_sc_hd__nand2_1
*I *155:B1 I *D sky130_fd_sc_hd__o21ai_1
*I *152:A1 I *D sky130_fd_sc_hd__o32ai_1
*I *158:S I *D sky130_fd_sc_hd__mux2_1
*I *172:X O *D sky130_fd_sc_hd__dlymetal6s2s_1
*CAP
1 *149:A 0.000111795
2 *150:A 2.64632e-05
3 *155:B1 0.00028611
4 *152:A1 0.000181773
5 *158:S 6.17285e-05
6 *172:X 0.000283551
7 *28:55 0.000160644
8 *28:38 0.000380022
9 *28:21 0.000451967
10 *28:8 0.000543947
11 *149:B *149:A 4.06366e-05
12 *149:B *150:A 3.76337e-05
13 *149:B *155:B1 3.96158e-05
14 *150:B *155:B1 4.27437e-05
15 *151:A1 *152:A1 2.95641e-05
16 *151:A2 *28:21 4.46186e-06
17 *151:A2 *28:38 3.84385e-05
18 *151:B1 *152:A1 5.52302e-05
19 *151:B1 *28:38 6.19181e-05
20 *152:B1 *152:A1 7.65308e-05
21 *155:A2 *155:B1 0.000167664
22 *11:34 *155:B1 5.47064e-05
23 *24:31 *155:B1 0.000141729
24 *24:31 *28:21 0
25 *24:33 *28:8 0
26 *24:33 *28:21 0
27 *24:39 *28:8 0
*RES
1 *172:X *28:8 18.7821 
2 *28:8 *158:S 14.7464 
3 *28:8 *28:21 3.08929 
4 *28:21 *152:A1 17.2464 
5 *28:21 *28:38 6.14286 
6 *28:38 *155:B1 23.2821 
7 *28:38 *28:55 0.428571 
8 *28:55 *150:A 10.2643 
9 *28:55 *149:A 11.4964 
*END

*D_NET *29 0.00167908
*CONN
*I *173:A I *D sky130_fd_sc_hd__buf_12
*I *164:Q O *D sky130_fd_sc_hd__dfxtp_1
*CAP
1 *173:A 0.000823673
2 *164:Q 0.000823673
3 *164:D *173:A 3.17321e-05
*RES
1 *164:Q *173:A 39.0643 
*END

*D_NET *30 0.0028189
*CONN
*I *165:D I *D sky130_fd_sc_hd__dfrtp_2
*I *152:Y O *D sky130_fd_sc_hd__o32ai_1
*CAP
1 *165:D 0.000623901
2 *152:Y 0.000623901
3 *157:A *165:D 0.000602481
4 *159:B1 *165:D 0.000190152
5 *162:A *165:D 0
6 *163:A *165:D 0
7 *24:10 *165:D 0.000214342
8 *24:14 *165:D 0.000564125
*RES
1 *152:Y *165:D 43.3187 
*END

*D_NET *31 0.00108891
*CONN
*I *166:D I *D sky130_fd_sc_hd__dfrtp_1
*I *157:X O *D sky130_fd_sc_hd__clkbuf_1
*CAP
1 *166:D 0.000544456
2 *157:X 0.000544456
*RES
1 *157:X *166:D 27.3679 
*END

*D_NET *32 0.00168586
*CONN
*I *167:D I *D sky130_fd_sc_hd__dfrtp_1
*I *159:X O *D sky130_fd_sc_hd__o21a_1
*CAP
1 *167:D 0.000701569
2 *159:X 0.000701569
3 *169:A *167:D 0.000153054
4 *25:8 *167:D 6.16744e-05
5 *25:14 *167:D 1.76135e-05
6 *26:14 *167:D 5.03772e-05
*RES
1 *159:X *167:D 39.2429 
*END
