*SPEF "ieee 1481-1999"
*DESIGN "manhattandetector"
*DATE "11:11:11 Fri 11 11, 1111"
*VENDOR "OpenRCX"
*PROGRAM "Parallel Extraction"
*VERSION "1.0"
*DESIGN_FLOW "NAME_SCOPE LOCAL" "PIN_CAP NONE"
*DIVIDER /
*DELIMITER :
*BUS_DELIMITER []
*T_UNIT 1 NS
*C_UNIT 1 PF
*R_UNIT 1 OHM
*L_UNIT 1 HENRY

*NAME_MAP
*3 clock
*4 detector_out
*5 reset
*6 sequence_in
*7 _00_
*8 _01_
*9 _02_
*10 _03_
*11 _04_
*12 _05_
*13 _06_
*14 _07_
*15 _08_
*16 _09_
*17 _10_
*18 _11_
*19 _12_
*20 _13_
*21 clknet_0_clock
*22 clknet_1_0__leaf_clock
*23 clknet_1_1__leaf_clock
*24 current_state\[0\]
*25 current_state\[1\]
*26 current_state\[2\]
*27 net1
*28 net2
*29 net3
*30 next_state\[0\]
*31 next_state\[1\]
*32 next_state\[2\]
*33 ANTENNA_clkbuf_0_clock_A
*34 ANTENNA_input1_A
*35 ANTENNA_input2_A
*36 FILLER_0_0_15
*37 FILLER_0_0_27
*38 FILLER_0_0_29
*39 FILLER_0_0_3
*40 FILLER_0_0_41
*41 FILLER_0_0_55
*42 FILLER_0_0_57
*43 FILLER_0_0_61
*44 FILLER_0_10_20
*45 FILLER_0_10_29
*46 FILLER_0_10_3
*47 FILLER_0_10_41
*48 FILLER_0_10_53
*49 FILLER_0_10_57
*50 FILLER_0_10_62
*51 FILLER_0_1_24
*52 FILLER_0_1_28
*53 FILLER_0_1_3
*54 FILLER_0_1_33
*55 FILLER_0_1_39
*56 FILLER_0_1_51
*57 FILLER_0_1_55
*58 FILLER_0_1_57
*59 FILLER_0_2_15
*60 FILLER_0_2_27
*61 FILLER_0_2_29
*62 FILLER_0_2_3
*63 FILLER_0_2_34
*64 FILLER_0_2_51
*65 FILLER_0_3_24
*66 FILLER_0_3_3
*67 FILLER_0_3_35
*68 FILLER_0_3_45
*69 FILLER_0_3_53
*70 FILLER_0_3_57
*71 FILLER_0_4_15
*72 FILLER_0_4_18
*73 FILLER_0_4_26
*74 FILLER_0_4_29
*75 FILLER_0_4_3
*76 FILLER_0_4_36
*77 FILLER_0_4_42
*78 FILLER_0_4_46
*79 FILLER_0_4_50
*80 FILLER_0_4_55
*81 FILLER_0_5_11
*82 FILLER_0_5_16
*83 FILLER_0_5_3
*84 FILLER_0_5_38
*85 FILLER_0_5_50
*86 FILLER_0_5_57
*87 FILLER_0_6_27
*88 FILLER_0_6_29
*89 FILLER_0_6_3
*90 FILLER_0_6_33
*91 FILLER_0_6_45
*92 FILLER_0_6_57
*93 FILLER_0_7_15
*94 FILLER_0_7_3
*95 FILLER_0_7_38
*96 FILLER_0_7_47
*97 FILLER_0_7_52
*98 FILLER_0_7_57
*99 FILLER_0_8_20
*100 FILLER_0_8_25
*101 FILLER_0_8_29
*102 FILLER_0_8_3
*103 FILLER_0_8_52
*104 FILLER_0_8_60
*105 FILLER_0_9_15
*106 FILLER_0_9_27
*107 FILLER_0_9_3
*108 FILLER_0_9_39
*109 FILLER_0_9_51
*110 FILLER_0_9_55
*111 FILLER_0_9_57
*112 PHY_EDGE_ROW_0_Left_11
*113 PHY_EDGE_ROW_0_Right_0
*114 PHY_EDGE_ROW_10_Left_21
*115 PHY_EDGE_ROW_10_Right_10
*116 PHY_EDGE_ROW_1_Left_12
*117 PHY_EDGE_ROW_1_Right_1
*118 PHY_EDGE_ROW_2_Left_13
*119 PHY_EDGE_ROW_2_Right_2
*120 PHY_EDGE_ROW_3_Left_14
*121 PHY_EDGE_ROW_3_Right_3
*122 PHY_EDGE_ROW_4_Left_15
*123 PHY_EDGE_ROW_4_Right_4
*124 PHY_EDGE_ROW_5_Left_16
*125 PHY_EDGE_ROW_5_Right_5
*126 PHY_EDGE_ROW_6_Left_17
*127 PHY_EDGE_ROW_6_Right_6
*128 PHY_EDGE_ROW_7_Left_18
*129 PHY_EDGE_ROW_7_Right_7
*130 PHY_EDGE_ROW_8_Left_19
*131 PHY_EDGE_ROW_8_Right_8
*132 PHY_EDGE_ROW_9_Left_20
*133 PHY_EDGE_ROW_9_Right_9
*134 TAP_TAPCELL_ROW_0_22
*135 TAP_TAPCELL_ROW_0_23
*136 TAP_TAPCELL_ROW_10_33
*137 TAP_TAPCELL_ROW_10_34
*138 TAP_TAPCELL_ROW_1_24
*139 TAP_TAPCELL_ROW_2_25
*140 TAP_TAPCELL_ROW_3_26
*141 TAP_TAPCELL_ROW_4_27
*142 TAP_TAPCELL_ROW_5_28
*143 TAP_TAPCELL_ROW_6_29
*144 TAP_TAPCELL_ROW_7_30
*145 TAP_TAPCELL_ROW_8_31
*146 TAP_TAPCELL_ROW_9_32
*147 _14_
*148 _15_
*149 _16_
*150 _17_
*151 _18_
*152 _19_
*153 _20_
*154 _21_
*155 _22_
*156 _23_
*157 _24_
*158 _25_
*159 _26_
*160 _27_
*161 _28_
*162 _29_
*163 _30_
*164 _31_
*165 _32_
*166 _33_
*167 _34_
*168 clkbuf_0_clock
*169 clkbuf_1_0__f_clock
*170 clkbuf_1_1__f_clock
*171 input1
*172 input2
*173 output3

*PORTS
clock I
detector_out O
reset I
sequence_in I

*D_NET *3 0.00415516
*CONN
*P clock I
*I *33:DIODE I *D sky130_fd_sc_hd__diode_2
*I *168:A I *D sky130_fd_sc_hd__clkbuf_16
*CAP
1 clock 0.00174523
2 *33:DIODE 0
3 *168:A 0
4 *3:19 0.000219227
5 *3:9 0.00196446
6 *3:19 *9:8 0.000114656
7 *3:19 *21:25 0
8 *3:19 *27:28 0.000111596
*RES
1 clock *3:9 47.7493 
2 *3:9 *3:19 35.2614 
3 *3:19 *168:A 23 
4 *3:9 *33:DIODE 23 
*END

*D_NET *4 0.00231852
*CONN
*P detector_out O
*I *173:X O *D sky130_fd_sc_hd__buf_12
*CAP
1 detector_out 0.000939935
2 *173:X 0.000219324
3 *4:12 0.00115926
*RES
1 *173:X *4:12 41.9979 
2 *4:12 detector_out 18.1141 
*END

*D_NET *5 0.00175496
*CONN
*P reset I
*I *171:A I *D sky130_fd_sc_hd__clkbuf_2
*I *34:DIODE I *D sky130_fd_sc_hd__diode_2
*CAP
1 reset 0.000734785
2 *171:A 0
3 *34:DIODE 0.000142697
4 *5:9 0.000877482
*RES
1 reset *5:9 30.6186 
2 *5:9 *34:DIODE 25.5271 
3 *5:9 *171:A 23 
*END

*D_NET *6 0.0016756
*CONN
*P sequence_in I
*I *172:A I *D sky130_fd_sc_hd__dlymetal6s2s_1
*I *35:DIODE I *D sky130_fd_sc_hd__diode_2
*CAP
1 sequence_in 0.000631647
2 *172:A 0.000206153
3 *35:DIODE 0
4 *6:11 0.0008378
*RES
1 sequence_in *6:11 31.9978 
2 *6:11 *35:DIODE 23 
3 *6:11 *172:A 26.8529 
*END

*D_NET *7 0.000476249
*CONN
*I *165:RESET_B I *D sky130_fd_sc_hd__dfrtp_2
*I *161:Y O *D sky130_fd_sc_hd__inv_2
*CAP
1 *165:RESET_B 3.27288e-05
2 *161:Y 0.000164071
3 *7:10 0.000196799
4 *165:RESET_B *24:10 2.56078e-05
5 *7:10 *27:8 0
6 *7:10 *27:16 5.70419e-05
*RES
1 *161:Y *7:10 40.6514 
2 *7:10 *165:RESET_B 15.5489 
*END

*D_NET *8 0.000720003
*CONN
*I *166:RESET_B I *D sky130_fd_sc_hd__dfrtp_1
*I *162:Y O *D sky130_fd_sc_hd__inv_2
*CAP
1 *166:RESET_B 0
2 *162:Y 0.000332496
3 *8:10 0.000332496
4 *8:10 *160:A 0
5 *8:10 *162:A 0
6 *8:10 *164:CLK 5.50106e-05
7 *8:10 *10:16 0
8 *8:10 *21:14 0
9 *8:10 *25:8 0
10 *8:10 *27:28 0
*RES
1 *162:Y *8:10 43.6964 
2 *8:10 *166:RESET_B 15 
*END

*D_NET *9 0.000519496
*CONN
*I *167:RESET_B I *D sky130_fd_sc_hd__dfrtp_1
*I *163:Y O *D sky130_fd_sc_hd__inv_2
*CAP
1 *167:RESET_B 0
2 *163:Y 0.00020242
3 *9:8 0.00020242
4 *9:8 *166:CLK 0
5 *9:8 *21:25 0
6 *3:19 *9:8 0.000114656
*RES
1 *163:Y *9:8 42.3707 
2 *9:8 *167:RESET_B 15 
*END

*D_NET *10 0.00260792
*CONN
*I *164:D I *D sky130_fd_sc_hd__dfxtp_1
*I *160:Y O *D sky130_fd_sc_hd__nor4b_1
*CAP
1 *164:D 0
2 *160:Y 0.000772244
3 *10:16 0.000119979
4 *10:8 0.000892223
5 *10:8 *160:A 6.51763e-05
6 *10:8 *27:16 0.000146195
7 *10:8 *27:20 0.000579784
8 *10:16 *173:A 1.58805e-05
9 *10:16 *29:8 1.64354e-05
10 *8:10 *10:16 0
*RES
1 *160:Y *10:8 37.935 
2 *10:8 *10:16 31.7452 
3 *10:16 *164:D 23 
*END

*D_NET *11 0.0043422
*CONN
*I *158:A0 I *D sky130_fd_sc_hd__mux2_1
*I *149:B I *D sky130_fd_sc_hd__nor2_1
*I *150:B I *D sky130_fd_sc_hd__nand2_1
*I *155:A2 I *D sky130_fd_sc_hd__o21ai_1
*I *152:A2 I *D sky130_fd_sc_hd__o32ai_1
*I *153:A2 I *D sky130_fd_sc_hd__a21oi_1
*I *147:X O *D sky130_fd_sc_hd__clkbuf_2
*CAP
1 *158:A0 0.000160466
2 *149:B 0.00030338
3 *150:B 4.04562e-05
4 *155:A2 0.000111217
5 *152:A2 0
6 *153:A2 0
7 *147:X 0
8 *11:36 0.000151674
9 *11:34 0.00058338
10 *11:23 0.000415745
11 *11:17 0.000693022
12 *11:10 9.91658e-05
13 *11:4 0.000495977
14 *149:B *149:A 4.12182e-05
15 *149:B *150:A 3.81946e-05
16 *149:B *151:B1 5.44889e-06
17 *149:B *24:31 0.000114876
18 *149:B *28:48 4.16334e-05
19 *150:B *24:31 2.64616e-05
20 *150:B *28:48 4.34973e-05
21 *155:A2 *155:A1 5.56356e-05
22 *155:A2 *159:B1 5.3304e-05
23 *155:A2 *18:10 2.24654e-05
24 *155:A2 *24:31 3.74633e-05
25 *155:A2 *28:48 0.000170955
26 *158:A0 *158:A1 1.24376e-05
27 *158:A0 *20:14 8.91468e-07
28 *11:10 *16:12 6.93553e-05
29 *11:17 *20:14 4.21099e-06
30 *11:23 *12:10 6.56017e-05
31 *11:23 *20:14 8.29264e-05
32 *11:23 *24:39 0
33 *11:34 *15:10 7.58527e-05
34 *11:34 *24:31 0.000228441
35 *11:34 *24:33 3.64337e-05
36 *11:34 *28:48 6.04116e-05
*RES
1 *147:X *11:4 23 
2 *11:4 *11:10 31.9057 
3 *11:10 *153:A2 23 
4 *11:4 *11:17 4.90929 
5 *11:17 *11:23 32.9621 
6 *11:23 *152:A2 23 
7 *11:23 *11:34 20.2407 
8 *11:34 *11:36 15 
9 *11:36 *155:A2 26.0036 
10 *11:36 *150:B 24.0979 
11 *11:34 *149:B 44.1729 
12 *11:17 *158:A0 25.0507 
*END

*D_NET *12 0.00215677
*CONN
*I *152:A3 I *D sky130_fd_sc_hd__o32ai_1
*I *159:A1 I *D sky130_fd_sc_hd__o21a_1
*I *148:Y O *D sky130_fd_sc_hd__nor2_1
*CAP
1 *152:A3 9.36948e-05
2 *159:A1 0
3 *148:Y 0.000298107
4 *12:20 0.000349128
5 *12:12 0.000442823
6 *12:10 0.000298107
7 *152:A3 *152:B2 6.17437e-06
8 *152:A3 *15:10 2.34321e-05
9 *12:10 *153:A1 1.65191e-05
10 *12:10 *16:12 0
11 *12:10 *20:14 8.50366e-05
12 *12:10 *24:39 5.70006e-05
13 *12:20 *152:B2 4.6595e-05
14 *12:20 *16:12 0
15 *12:20 *17:25 0.000133658
16 *12:20 *18:10 3.65023e-05
17 *12:20 *19:10 0.000204386
18 *12:20 *20:14 0
19 *11:23 *12:10 6.56017e-05
*RES
1 *148:Y *12:10 43.5929 
2 *12:10 *12:12 15 
3 *12:12 *12:20 36.1936 
4 *12:20 *159:A1 23 
5 *12:12 *152:A3 24.4707 
*END

*D_NET *13 0.000396257
*CONN
*I *151:A2 I *D sky130_fd_sc_hd__o21a_1
*I *149:Y O *D sky130_fd_sc_hd__nor2_1
*CAP
1 *151:A2 6.25373e-05
2 *149:Y 9.95054e-05
3 *13:8 0.000162043
4 *151:A2 *151:A1 2.93845e-05
5 *13:8 *28:21 4.6318e-06
6 *13:8 *28:38 3.81554e-05
*RES
1 *149:Y *13:8 39.9057 
2 *13:8 *151:A2 39.0979 
*END

*D_NET *14 0.00182258
*CONN
*I *160:C I *D sky130_fd_sc_hd__nor4b_1
*I *151:B1 I *D sky130_fd_sc_hd__o21a_1
*I *150:Y O *D sky130_fd_sc_hd__nand2_1
*CAP
1 *160:C 0.000486311
2 *151:B1 0.000193455
3 *150:Y 0
4 *14:6 0.000679767
5 *151:B1 *151:A1 3.22879e-05
6 *151:B1 *152:A1 5.50106e-05
7 *151:B1 *24:31 0.000118899
8 *151:B1 *28:38 6.4393e-05
9 *160:C *27:16 0.00018701
10 *149:B *151:B1 5.44889e-06
*RES
1 *150:Y *14:6 38 
2 *14:6 *151:B1 42.2879 
3 *14:6 *160:C 47.5907 
*END

*D_NET *15 0.000804311
*CONN
*I *152:B1 I *D sky130_fd_sc_hd__o32ai_1
*I *151:X O *D sky130_fd_sc_hd__o21a_1
*CAP
1 *152:B1 0
2 *151:X 0.000238767
3 *15:10 0.000238767
4 *15:10 *151:A1 5.50106e-05
5 *15:10 *152:A1 7.83107e-05
6 *15:10 *152:B2 9.41704e-05
7 *152:A3 *15:10 2.34321e-05
8 *11:34 *15:10 7.58527e-05
*RES
1 *151:X *15:10 28.075 
2 *15:10 *152:B1 23 
*END

*D_NET *16 0.00103085
*CONN
*I *156:A0 I *D sky130_fd_sc_hd__mux2_1
*I *153:Y O *D sky130_fd_sc_hd__a21oi_1
*CAP
1 *156:A0 0
2 *153:Y 0.000376977
3 *16:12 0.000376977
4 *16:12 *148:A 1.76557e-05
5 *16:12 *153:A1 1.14154e-05
6 *16:12 *17:10 0.000161121
7 *16:12 *18:10 1.19796e-05
8 *16:12 *25:14 0
9 *16:12 *25:20 5.37348e-06
10 *11:10 *16:12 6.93553e-05
11 *12:10 *16:12 0
12 *12:20 *16:12 0
*RES
1 *153:Y *16:12 45.25 
2 *16:12 *156:A0 38 
*END

*D_NET *17 0.00166968
*CONN
*I *159:A2 I *D sky130_fd_sc_hd__o21a_1
*I *156:A1 I *D sky130_fd_sc_hd__mux2_1
*I *154:X O *D sky130_fd_sc_hd__and2b_1
*CAP
1 *159:A2 0
2 *156:A1 0
3 *154:X 0.000267411
4 *17:25 0.000268869
5 *17:12 0.000268869
6 *17:10 0.000267411
7 *17:10 *147:A 8.1796e-05
8 *17:10 *18:10 0
9 *17:10 *25:8 2.22183e-05
10 *17:10 *25:14 1.70886e-05
11 *17:25 *152:B2 9.83168e-05
12 *17:25 *18:10 8.29264e-05
13 *17:25 *25:8 0
14 *12:20 *17:25 0.000133658
15 *16:12 *17:10 0.000161121
*RES
1 *154:X *17:10 42.5364 
2 *17:10 *17:12 15 
3 *17:12 *156:A1 23 
4 *17:12 *17:25 34.4329 
5 *17:25 *159:A2 23 
*END

*D_NET *18 0.00184561
*CONN
*I *156:S I *D sky130_fd_sc_hd__mux2_1
*I *155:Y O *D sky130_fd_sc_hd__o21ai_1
*CAP
1 *156:S 0.000165225
2 *155:Y 0.000416946
3 *18:10 0.000582171
4 *156:S *152:B2 0.000221753
5 *18:10 *159:B1 0.000305639
6 *18:10 *25:8 0
7 *155:A2 *18:10 2.24654e-05
8 *12:20 *18:10 3.65023e-05
9 *16:12 *18:10 1.19796e-05
10 *17:10 *18:10 0
11 *17:25 *18:10 8.29264e-05
*RES
1 *155:Y *18:10 44.2143 
2 *18:10 *156:S 41.5214 
*END

*D_NET *19 0.00225268
*CONN
*I *157:A I *D sky130_fd_sc_hd__clkbuf_1
*I *156:X O *D sky130_fd_sc_hd__mux2_1
*CAP
1 *157:A 0.000169905
2 *156:X 0.000427987
3 *19:10 0.000597892
4 *19:10 *152:B2 0.000185364
5 *19:10 *27:28 0
6 *19:10 *30:12 0.000667145
7 *12:20 *19:10 0.000204386
*RES
1 *156:X *19:10 48.9993 
2 *19:10 *157:A 41.0036 
*END

*D_NET *20 0.00180351
*CONN
*I *159:B1 I *D sky130_fd_sc_hd__o21a_1
*I *158:X O *D sky130_fd_sc_hd__mux2_1
*CAP
1 *159:B1 0.000204521
2 *158:X 0.000316453
3 *20:14 0.000520974
4 *159:B1 *155:A1 2.02872e-05
5 *20:14 *30:12 0.000209262
6 *155:A2 *159:B1 5.3304e-05
7 *158:A0 *20:14 8.91468e-07
8 *11:17 *20:14 4.21099e-06
9 *11:23 *20:14 8.29264e-05
10 *12:10 *20:14 8.50366e-05
11 *12:20 *20:14 0
12 *18:10 *159:B1 0.000305639
*RES
1 *158:X *20:14 43.7586 
2 *20:14 *159:B1 42.4536 
*END

*D_NET *21 0.00347125
*CONN
*I *169:A I *D sky130_fd_sc_hd__clkbuf_16
*I *170:A I *D sky130_fd_sc_hd__clkbuf_16
*I *168:X O *D sky130_fd_sc_hd__clkbuf_16
*CAP
1 *169:A 0
2 *170:A 0
3 *168:X 0.000293343
4 *21:25 0.000490214
5 *21:14 0.000430688
6 *21:6 0.00121425
7 *21:6 *27:28 0.000299117
8 *21:14 *25:8 0
9 *21:14 *27:28 0.000228903
10 *21:25 *25:8 0.000120065
11 *21:25 *25:14 7.05176e-05
12 *21:25 *25:20 0.000113624
13 *21:25 *26:10 4.08537e-05
14 *21:25 *32:10 0.000169683
15 *3:19 *21:25 0
16 *8:10 *21:14 0
17 *9:8 *21:25 0
*RES
1 *168:X *21:6 27.4329 
2 *21:6 *21:14 37.6021 
3 *21:14 *170:A 23 
4 *21:6 *21:25 41.7657 
5 *21:25 *169:A 23 
*END

*D_NET *22 0.00184661
*CONN
*I *166:CLK I *D sky130_fd_sc_hd__dfrtp_1
*I *167:CLK I *D sky130_fd_sc_hd__dfrtp_1
*I *169:X O *D sky130_fd_sc_hd__clkbuf_16
*CAP
1 *166:CLK 0.000532662
2 *167:CLK 0
3 *169:X 0.000390643
4 *22:10 0.000923304
5 *9:8 *166:CLK 0
*RES
1 *169:X *22:10 44.6493 
2 *22:10 *167:CLK 38 
3 *22:10 *166:CLK 47.8186 
*END

*D_NET *23 0.0012757
*CONN
*I *165:CLK I *D sky130_fd_sc_hd__dfrtp_2
*I *164:CLK I *D sky130_fd_sc_hd__dfxtp_1
*I *170:X O *D sky130_fd_sc_hd__clkbuf_16
*CAP
1 *165:CLK 2.0995e-05
2 *164:CLK 0.000309588
3 *170:X 6.71035e-05
4 *23:14 0.000385384
5 *23:8 0.000121905
6 *164:CLK *162:A 0.000272377
7 *23:8 *162:A 4.334e-05
8 *8:10 *164:CLK 5.50106e-05
*RES
1 *170:X *23:8 39.2014 
2 *23:8 *23:14 16.1186 
3 *23:14 *164:CLK 29.3593 
4 *23:14 *165:CLK 23.4971 
*END

*D_NET *24 0.00655651
*CONN
*I *160:D_N I *D sky130_fd_sc_hd__nor4b_1
*I *151:A1 I *D sky130_fd_sc_hd__o21a_1
*I *158:A1 I *D sky130_fd_sc_hd__mux2_1
*I *148:B I *D sky130_fd_sc_hd__nor2_1
*I *153:A1 I *D sky130_fd_sc_hd__a21oi_1
*I *155:A1 I *D sky130_fd_sc_hd__o21ai_1
*I *165:Q O *D sky130_fd_sc_hd__dfrtp_2
*CAP
1 *160:D_N 1.55776e-05
2 *151:A1 0.000177607
3 *158:A1 8.09741e-05
4 *148:B 0
5 *153:A1 0.00020464
6 *155:A1 8.32815e-05
7 *165:Q 0.000437733
8 *24:39 0.000626449
9 *24:33 0.000625406
10 *24:31 0.000613401
11 *24:14 0.000735134
12 *24:10 0.000791992
13 *151:A1 *152:A1 2.9938e-05
14 *153:A1 *148:A 0.000136489
15 *160:D_N *160:A 5.56356e-05
16 *160:D_N *27:20 5.56356e-05
17 *24:10 *30:12 0.000237534
18 *24:14 *30:12 0.00062643
19 *24:31 *28:21 0
20 *24:31 *28:48 0.000144494
21 *24:33 *28:8 0
22 *24:33 *28:21 0
23 *24:39 *28:8 0
24 *149:B *24:31 0.000114876
25 *150:B *24:31 2.64616e-05
26 *151:A2 *151:A1 2.93845e-05
27 *151:B1 *151:A1 3.22879e-05
28 *151:B1 *24:31 0.000118899
29 *155:A2 *155:A1 5.56356e-05
30 *155:A2 *24:31 3.74633e-05
31 *158:A0 *158:A1 1.24376e-05
32 *159:B1 *155:A1 2.02872e-05
33 *165:RESET_B *24:10 2.56078e-05
34 *11:23 *24:39 0
35 *11:34 *24:31 0.000228441
36 *11:34 *24:33 3.64337e-05
37 *12:10 *153:A1 1.65191e-05
38 *12:10 *24:39 5.70006e-05
39 *15:10 *151:A1 5.50106e-05
40 *16:12 *153:A1 1.14154e-05
*RES
1 *165:Q *24:10 46.2236 
2 *24:10 *24:14 23.2443 
3 *24:14 *155:A1 24.595 
4 *24:14 *24:31 22.5193 
5 *24:31 *24:33 2.25786 
6 *24:33 *24:39 21.9186 
7 *24:39 *153:A1 27.4743 
8 *24:39 *148:B 23 
9 *24:33 *158:A1 39.4707 
10 *24:31 *151:A1 41.5007 
11 *24:10 *160:D_N 38.6214 
*END

*D_NET *25 0.00530286
*CONN
*I *160:A I *D sky130_fd_sc_hd__nor4b_1
*I *152:B2 I *D sky130_fd_sc_hd__o32ai_1
*I *154:B I *D sky130_fd_sc_hd__and2b_1
*I *148:A I *D sky130_fd_sc_hd__nor2_1
*I *153:B1 I *D sky130_fd_sc_hd__a21oi_1
*I *166:Q O *D sky130_fd_sc_hd__dfrtp_1
*CAP
1 *160:A 0.000531953
2 *152:B2 0.000314574
3 *154:B 0
4 *148:A 0.000190937
5 *153:B1 0
6 *166:Q 0
7 *25:20 0.000436476
8 *25:14 0.00038004
9 *25:8 0.000872104
10 *25:6 0.000954981
11 *160:A *27:20 0.000262927
12 *160:A *27:28 0
13 *25:8 *27:28 0
14 *25:8 *32:10 6.42902e-05
15 *25:14 *32:10 1.83667e-05
16 *152:A3 *152:B2 6.17437e-06
17 *153:A1 *148:A 0.000136489
18 *156:S *152:B2 0.000221753
19 *160:D_N *160:A 5.56356e-05
20 *8:10 *160:A 0
21 *8:10 *25:8 0
22 *10:8 *160:A 6.51763e-05
23 *12:20 *152:B2 4.6595e-05
24 *15:10 *152:B2 9.41704e-05
25 *16:12 *148:A 1.76557e-05
26 *16:12 *25:14 0
27 *16:12 *25:20 5.37348e-06
28 *17:10 *25:8 2.22183e-05
29 *17:10 *25:14 1.70886e-05
30 *17:25 *152:B2 9.83168e-05
31 *17:25 *25:8 0
32 *18:10 *25:8 0
33 *19:10 *152:B2 0.000185364
34 *21:14 *25:8 0
35 *21:25 *25:8 0.000120065
36 *21:25 *25:14 7.05176e-05
37 *21:25 *25:20 0.000113624
*RES
1 *166:Q *25:6 38 
2 *25:6 *25:8 9.30071 
3 *25:8 *25:14 3.37643 
4 *25:14 *25:20 20.0129 
5 *25:20 *153:B1 23 
6 *25:20 *148:A 26.9771 
7 *25:14 *154:B 38 
8 *25:8 *152:B2 46.7414 
9 *25:6 *160:A 47.8186 
*END

*D_NET *26 0.0011621
*CONN
*I *147:A I *D sky130_fd_sc_hd__clkbuf_2
*I *154:A_N I *D sky130_fd_sc_hd__and2b_1
*I *167:Q O *D sky130_fd_sc_hd__dfrtp_1
*CAP
1 *147:A 0.000296969
2 *154:A_N 0
3 *167:Q 0.000157027
4 *26:14 0.000337084
5 *26:10 0.000197142
6 *26:10 *167:D 5.12254e-05
7 *17:10 *147:A 8.1796e-05
8 *21:25 *26:10 4.08537e-05
*RES
1 *167:Q *26:10 40.2993 
2 *26:10 *26:14 15.8493 
3 *26:14 *154:A_N 23 
4 *26:14 *147:A 28.4064 
*END

*D_NET *27 0.00578975
*CONN
*I *161:A I *D sky130_fd_sc_hd__inv_2
*I *160:B I *D sky130_fd_sc_hd__nor4b_1
*I *162:A I *D sky130_fd_sc_hd__inv_2
*I *163:A I *D sky130_fd_sc_hd__inv_2
*I *171:X O *D sky130_fd_sc_hd__clkbuf_2
*CAP
1 *161:A 0
2 *160:B 0
3 *162:A 0.000258387
4 *163:A 0
5 *171:X 0.000391535
6 *27:28 0.000642195
7 *27:20 0.00103941
8 *27:16 0.00025703
9 *27:14 0.000341965
10 *27:8 0.000615302
11 *162:A *30:12 0
12 *27:28 *30:12 0
13 *160:A *27:20 0.000262927
14 *160:A *27:28 0
15 *160:C *27:16 0.00018701
16 *160:D_N *27:20 5.56356e-05
17 *164:CLK *162:A 0.000272377
18 *3:19 *27:28 0.000111596
19 *7:10 *27:8 0
20 *7:10 *27:16 5.70419e-05
21 *8:10 *162:A 0
22 *8:10 *27:28 0
23 *10:8 *27:16 0.000146195
24 *10:8 *27:20 0.000579784
25 *19:10 *27:28 0
26 *21:6 *27:28 0.000299117
27 *21:14 *27:28 0.000228903
28 *23:8 *162:A 4.334e-05
29 *25:8 *27:28 0
*RES
1 *171:X *27:8 45.1879 
2 *27:8 *27:14 19.3293 
3 *27:14 *27:16 3.95643 
4 *27:16 *27:20 21.3386 
5 *27:20 *27:28 28.2157 
6 *27:28 *163:A 23 
7 *27:20 *162:A 43.6136 
8 *27:16 *160:B 23 
9 *27:14 *161:A 23 
*END

*D_NET *28 0.00362586
*CONN
*I *149:A I *D sky130_fd_sc_hd__nor2_1
*I *150:A I *D sky130_fd_sc_hd__nand2_1
*I *155:B1 I *D sky130_fd_sc_hd__o21ai_1
*I *152:A1 I *D sky130_fd_sc_hd__o32ai_1
*I *158:S I *D sky130_fd_sc_hd__mux2_1
*I *172:X O *D sky130_fd_sc_hd__dlymetal6s2s_1
*CAP
1 *149:A 0.00012091
2 *150:A 2.85706e-05
3 *155:B1 0
4 *152:A1 0.000207709
5 *158:S 6.80978e-05
6 *172:X 0.000313942
7 *28:55 0.000172963
8 *28:48 0.000325478
9 *28:38 0.000444327
10 *28:21 0.000527026
11 *28:8 0.000605991
12 *149:B *149:A 4.12182e-05
13 *149:B *150:A 3.81946e-05
14 *149:B *28:48 4.16334e-05
15 *150:B *28:48 4.34973e-05
16 *151:A1 *152:A1 2.9938e-05
17 *151:B1 *152:A1 5.50106e-05
18 *151:B1 *28:38 6.4393e-05
19 *155:A2 *28:48 0.000170955
20 *11:34 *28:48 6.04116e-05
21 *13:8 *28:21 4.6318e-06
22 *13:8 *28:38 3.81554e-05
23 *15:10 *152:A1 7.83107e-05
24 *24:31 *28:21 0
25 *24:31 *28:48 0.000144494
26 *24:33 *28:8 0
27 *24:33 *28:21 0
28 *24:39 *28:8 0
*RES
1 *172:X *28:8 43.7793 
2 *28:8 *158:S 39.0979 
3 *28:8 *28:21 3.58357 
4 *28:21 *152:A1 41.9979 
5 *28:21 *28:38 16.9057 
6 *28:38 *28:48 35.7793 
7 *28:48 *155:B1 23 
8 *28:38 *28:55 0.497143 
9 *28:55 *150:A 24.1186 
10 *28:55 *149:A 25.5479 
*END

*D_NET *29 0.00177164
*CONN
*I *173:A I *D sky130_fd_sc_hd__buf_12
*I *164:Q O *D sky130_fd_sc_hd__dfxtp_1
*CAP
1 *173:A 0.000347353
2 *164:Q 0.00052231
3 *29:8 0.000869663
4 *10:16 *173:A 1.58805e-05
5 *10:16 *29:8 1.64354e-05
*RES
1 *164:Q *29:8 44.815 
2 *29:8 *173:A 44.4836 
*END

*D_NET *30 0.0031808
*CONN
*I *165:D I *D sky130_fd_sc_hd__dfrtp_2
*I *152:Y O *D sky130_fd_sc_hd__o32ai_1
*CAP
1 *165:D 0
2 *152:Y 0
3 *30:12 0.000720214
4 *30:6 0.000720214
5 *162:A *30:12 0
6 *19:10 *30:12 0.000667145
7 *20:14 *30:12 0.000209262
8 *24:10 *30:12 0.000237534
9 *24:14 *30:12 0.00062643
10 *27:28 *30:12 0
*RES
1 *152:Y *30:6 38 
2 *30:6 *30:12 33.2337 
3 *30:12 *165:D 23 
*END

*D_NET *31 0.00117483
*CONN
*I *166:D I *D sky130_fd_sc_hd__dfrtp_1
*I *157:X O *D sky130_fd_sc_hd__clkbuf_1
*CAP
1 *166:D 0
2 *157:X 0.000587416
3 *31:8 0.000587416
*RES
1 *157:X *31:8 33.1707 
2 *31:8 *166:D 23 
*END

*D_NET *32 0.00181734
*CONN
*I *167:D I *D sky130_fd_sc_hd__dfrtp_1
*I *159:X O *D sky130_fd_sc_hd__o21a_1
*CAP
1 *167:D 0.000448883
2 *159:X 0.000308003
3 *32:10 0.000756885
4 *21:25 *32:10 0.000169683
5 *25:8 *32:10 6.42902e-05
6 *25:14 *32:10 1.83667e-05
7 *26:10 *167:D 5.12254e-05
*RES
1 *159:X *32:10 43.2614 
2 *32:10 *167:D 46.2443 
*END
