*SPEF "ieee 1481-1999"
*DESIGN "manhattandetector"
*DATE "11:11:11 Fri 11 11, 1111"
*VENDOR "OpenRCX"
*PROGRAM "Parallel Extraction"
*VERSION "1.0"
*DESIGN_FLOW "NAME_SCOPE LOCAL" "PIN_CAP NONE"
*DIVIDER /
*DELIMITER :
*BUS_DELIMITER []
*T_UNIT 1 NS
*C_UNIT 1 PF
*R_UNIT 1 OHM
*L_UNIT 1 HENRY

*NAME_MAP
*3 clock
*4 detector_out
*5 reset
*6 sequence_in
*7 _00_
*8 _01_
*9 _02_
*10 _03_
*11 _04_
*12 _05_
*13 _06_
*14 _07_
*15 _08_
*16 _09_
*17 _10_
*18 _11_
*19 _12_
*20 _13_
*21 clknet_0_clock
*22 clknet_1_0__leaf_clock
*23 clknet_1_1__leaf_clock
*24 current_state\[0\]
*25 current_state\[1\]
*26 current_state\[2\]
*27 net1
*28 net2
*29 net3
*30 next_state\[0\]
*31 next_state\[1\]
*32 next_state\[2\]
*33 ANTENNA_clkbuf_0_clock_A
*34 ANTENNA_input1_A
*35 ANTENNA_input2_A
*36 FILLER_0_0_15
*37 FILLER_0_0_27
*38 FILLER_0_0_29
*39 FILLER_0_0_3
*40 FILLER_0_0_41
*41 FILLER_0_0_55
*42 FILLER_0_0_57
*43 FILLER_0_0_61
*44 FILLER_0_10_20
*45 FILLER_0_10_29
*46 FILLER_0_10_3
*47 FILLER_0_10_41
*48 FILLER_0_10_53
*49 FILLER_0_10_57
*50 FILLER_0_10_62
*51 FILLER_0_1_24
*52 FILLER_0_1_28
*53 FILLER_0_1_3
*54 FILLER_0_1_33
*55 FILLER_0_1_39
*56 FILLER_0_1_51
*57 FILLER_0_1_55
*58 FILLER_0_1_57
*59 FILLER_0_2_15
*60 FILLER_0_2_27
*61 FILLER_0_2_29
*62 FILLER_0_2_3
*63 FILLER_0_2_34
*64 FILLER_0_2_51
*65 FILLER_0_3_24
*66 FILLER_0_3_3
*67 FILLER_0_3_35
*68 FILLER_0_3_45
*69 FILLER_0_3_53
*70 FILLER_0_3_57
*71 FILLER_0_4_15
*72 FILLER_0_4_18
*73 FILLER_0_4_26
*74 FILLER_0_4_29
*75 FILLER_0_4_3
*76 FILLER_0_4_36
*77 FILLER_0_4_42
*78 FILLER_0_4_46
*79 FILLER_0_4_50
*80 FILLER_0_4_55
*81 FILLER_0_5_11
*82 FILLER_0_5_16
*83 FILLER_0_5_3
*84 FILLER_0_5_38
*85 FILLER_0_5_50
*86 FILLER_0_5_57
*87 FILLER_0_6_27
*88 FILLER_0_6_29
*89 FILLER_0_6_3
*90 FILLER_0_6_33
*91 FILLER_0_6_45
*92 FILLER_0_6_57
*93 FILLER_0_7_15
*94 FILLER_0_7_3
*95 FILLER_0_7_38
*96 FILLER_0_7_47
*97 FILLER_0_7_52
*98 FILLER_0_7_57
*99 FILLER_0_8_20
*100 FILLER_0_8_25
*101 FILLER_0_8_29
*102 FILLER_0_8_3
*103 FILLER_0_8_52
*104 FILLER_0_8_60
*105 FILLER_0_9_15
*106 FILLER_0_9_27
*107 FILLER_0_9_3
*108 FILLER_0_9_39
*109 FILLER_0_9_51
*110 FILLER_0_9_55
*111 FILLER_0_9_57
*112 PHY_EDGE_ROW_0_Left_11
*113 PHY_EDGE_ROW_0_Right_0
*114 PHY_EDGE_ROW_10_Left_21
*115 PHY_EDGE_ROW_10_Right_10
*116 PHY_EDGE_ROW_1_Left_12
*117 PHY_EDGE_ROW_1_Right_1
*118 PHY_EDGE_ROW_2_Left_13
*119 PHY_EDGE_ROW_2_Right_2
*120 PHY_EDGE_ROW_3_Left_14
*121 PHY_EDGE_ROW_3_Right_3
*122 PHY_EDGE_ROW_4_Left_15
*123 PHY_EDGE_ROW_4_Right_4
*124 PHY_EDGE_ROW_5_Left_16
*125 PHY_EDGE_ROW_5_Right_5
*126 PHY_EDGE_ROW_6_Left_17
*127 PHY_EDGE_ROW_6_Right_6
*128 PHY_EDGE_ROW_7_Left_18
*129 PHY_EDGE_ROW_7_Right_7
*130 PHY_EDGE_ROW_8_Left_19
*131 PHY_EDGE_ROW_8_Right_8
*132 PHY_EDGE_ROW_9_Left_20
*133 PHY_EDGE_ROW_9_Right_9
*134 TAP_TAPCELL_ROW_0_22
*135 TAP_TAPCELL_ROW_0_23
*136 TAP_TAPCELL_ROW_10_33
*137 TAP_TAPCELL_ROW_10_34
*138 TAP_TAPCELL_ROW_1_24
*139 TAP_TAPCELL_ROW_2_25
*140 TAP_TAPCELL_ROW_3_26
*141 TAP_TAPCELL_ROW_4_27
*142 TAP_TAPCELL_ROW_5_28
*143 TAP_TAPCELL_ROW_6_29
*144 TAP_TAPCELL_ROW_7_30
*145 TAP_TAPCELL_ROW_8_31
*146 TAP_TAPCELL_ROW_9_32
*147 _14_
*148 _15_
*149 _16_
*150 _17_
*151 _18_
*152 _19_
*153 _20_
*154 _21_
*155 _22_
*156 _23_
*157 _24_
*158 _25_
*159 _26_
*160 _27_
*161 _28_
*162 _29_
*163 _30_
*164 _31_
*165 _32_
*166 _33_
*167 _34_
*168 clkbuf_0_clock
*169 clkbuf_1_0__f_clock
*170 clkbuf_1_1__f_clock
*171 input1
*172 input2
*173 output3

*PORTS
clock I
detector_out O
reset I
sequence_in I

*D_NET *3 0.00364591
*CONN
*P clock I
*I *33:DIODE I *D sky130_fd_sc_hd__diode_2
*I *168:A I *D sky130_fd_sc_hd__clkbuf_16
*CAP
1 clock 0.00154362
2 *33:DIODE 0
3 *168:A 0.000177513
4 *3:9 0.00172113
5 *168:A *163:A 9.78003e-05
6 *168:A *167:RESET_B 0.000105849
7 *168:A *169:A 0
*RES
1 clock *3:9 25.715 
2 *3:9 *168:A 9.41 
3 *3:9 *33:DIODE 1.6 
*END

*D_NET *4 0.00204806
*CONN
*P detector_out O
*I *173:X O *D sky130_fd_sc_hd__buf_12
*CAP
1 detector_out 0.00102403
2 *173:X 0.00102403
*RES
1 *173:X detector_out 14.2258 
*END

*D_NET *5 0.00155944
*CONN
*P reset I
*I *171:A I *D sky130_fd_sc_hd__clkbuf_2
*I *34:DIODE I *D sky130_fd_sc_hd__diode_2
*CAP
1 reset 0.000655436
2 *171:A 0
3 *34:DIODE 0.000124286
4 *5:9 0.000779721
*RES
1 reset *5:9 13.31 
2 *5:9 *34:DIODE 3.43 
3 *5:9 *171:A 1.6 
*END

*D_NET *6 0.00148092
*CONN
*P sequence_in I
*I *172:A I *D sky130_fd_sc_hd__dlymetal6s2s_1
*I *35:DIODE I *D sky130_fd_sc_hd__diode_2
*CAP
1 sequence_in 0.000558733
2 *172:A 0.000181725
3 *35:DIODE 0
4 *6:11 0.000740458
*RES
1 sequence_in *6:11 8.9733 
2 *6:11 *35:DIODE 1.6 
3 *6:11 *172:A 4.39 
*END

*D_NET *7 0.000392915
*CONN
*I *165:RESET_B I *D sky130_fd_sc_hd__dfrtp_2
*I *161:Y O *D sky130_fd_sc_hd__inv_2
*CAP
1 *165:RESET_B 0.000157919
2 *161:Y 0.000157919
3 *165:RESET_B *24:10 2.40101e-05
4 *165:RESET_B *27:14 0
5 *165:RESET_B *27:16 5.30673e-05
*RES
1 *161:Y *165:RESET_B 7.9175 
*END

*D_NET *8 0.00058212
*CONN
*I *166:RESET_B I *D sky130_fd_sc_hd__dfrtp_1
*I *162:Y O *D sky130_fd_sc_hd__inv_2
*CAP
1 *166:RESET_B 0.000266914
2 *162:Y 0.000266914
3 *166:RESET_B *160:A 0
4 *166:RESET_B *162:A 0
5 *166:RESET_B *163:A 0
6 *166:RESET_B *164:CLK 4.82919e-05
7 *166:RESET_B *164:D 0
8 *166:RESET_B *170:A 0
9 *166:RESET_B *25:8 0
*RES
1 *162:Y *166:RESET_B 9.725 
*END

*D_NET *9 0.00042442
*CONN
*I *167:RESET_B I *D sky130_fd_sc_hd__dfrtp_1
*I *163:Y O *D sky130_fd_sc_hd__inv_2
*CAP
1 *167:RESET_B 0.000159286
2 *163:Y 0.000159286
3 *167:RESET_B *166:CLK 0
4 *167:RESET_B *169:A 0
5 *168:A *167:RESET_B 0.000105849
*RES
1 *163:Y *167:RESET_B 8.765 
*END

*D_NET *10 0.00219103
*CONN
*I *164:D I *D sky130_fd_sc_hd__dfxtp_1
*I *160:Y O *D sky130_fd_sc_hd__nor4b_1
*CAP
1 *164:D 0.000740225
2 *160:Y 0.000740225
3 *164:D *160:A 6.05513e-05
4 *164:D *173:A 2.95901e-05
5 *164:D *27:16 0.000124473
6 *164:D *27:20 0.000495962
7 *166:RESET_B *164:D 0
*RES
1 *160:Y *164:D 19.2787 
*END

*D_NET *11 0.00353931
*CONN
*I *158:A0 I *D sky130_fd_sc_hd__mux2_1
*I *149:B I *D sky130_fd_sc_hd__nor2_1
*I *150:B I *D sky130_fd_sc_hd__nand2_1
*I *155:A2 I *D sky130_fd_sc_hd__o21ai_1
*I *152:A2 I *D sky130_fd_sc_hd__o32ai_1
*I *153:A2 I *D sky130_fd_sc_hd__a21oi_1
*I *147:X O *D sky130_fd_sc_hd__clkbuf_2
*CAP
1 *158:A0 0.000132932
2 *149:B 0.000245883
3 *150:B 2.5527e-05
4 *155:A2 8.1095e-05
5 *152:A2 0
6 *153:A2 7.29995e-05
7 *147:X 0
8 *11:36 0.000106622
9 *11:34 0.000457632
10 *11:23 0.000315017
11 *11:17 0.000569771
12 *11:4 0.000406571
13 *149:B *149:A 3.77818e-05
14 *149:B *150:A 3.54536e-05
15 *149:B *151:B1 6.23541e-06
16 *149:B *155:B1 3.81943e-05
17 *149:B *24:31 9.70677e-05
18 *150:B *155:B1 4.08514e-05
19 *150:B *24:31 2.49909e-05
20 *153:A2 *156:A0 6.47594e-05
21 *155:A2 *155:A1 4.77757e-05
22 *155:A2 *155:B1 0.000147788
23 *155:A2 *156:S 2.06295e-05
24 *155:A2 *159:B1 4.66108e-05
25 *155:A2 *24:31 3.4465e-05
26 *158:A0 *158:A1 1.08758e-05
27 *158:A0 *159:B1 9.60582e-07
28 *11:17 *159:B1 4.61007e-06
29 *11:23 *159:B1 6.88421e-05
30 *11:23 *12:12 6.11636e-05
31 *11:23 *24:39 0
32 *11:34 *152:B1 6.90044e-05
33 *11:34 *155:B1 4.9937e-05
34 *11:34 *24:31 0.000187477
35 *11:34 *24:33 2.97802e-05
*RES
1 *147:X *11:4 1.6 
2 *11:4 *153:A2 6.98 
3 *11:4 *11:17 3.555 
4 *11:17 *11:23 6.145 
5 *11:23 *152:A2 1.6 
6 *11:23 *11:34 5.795 
7 *11:34 *11:36 2 
8 *11:36 *155:A2 3.775 
9 *11:36 *150:B 2.395 
10 *11:34 *149:B 8.07 
11 *11:17 *158:A0 3.085 
*END

*D_NET *12 0.00174339
*CONN
*I *152:A3 I *D sky130_fd_sc_hd__o32ai_1
*I *159:A1 I *D sky130_fd_sc_hd__o21a_1
*I *148:Y O *D sky130_fd_sc_hd__nor2_1
*CAP
1 *152:A3 7.21152e-05
2 *159:A1 0.000260721
3 *148:Y 0.000236095
4 *12:12 0.000568932
5 *152:A3 *152:B1 2.11323e-05
6 *152:A3 *152:B2 5.83121e-06
7 *159:A1 *152:B2 4.35348e-05
8 *159:A1 *156:A0 0
9 *159:A1 *156:S 3.446e-05
10 *159:A1 *157:A 0.000190816
11 *159:A1 *159:A2 0.000110492
12 *159:A1 *159:B1 0
13 *12:12 *153:A1 1.5567e-05
14 *12:12 *156:A0 0
15 *12:12 *159:B1 7.01303e-05
16 *12:12 *24:39 5.2397e-05
17 *11:23 *12:12 6.11636e-05
*RES
1 *148:Y *12:12 9.65 
2 *12:12 *159:A1 10.085 
3 *12:12 *152:A3 2.665 
*END

*D_NET *13 0.000315112
*CONN
*I *151:A2 I *D sky130_fd_sc_hd__o21a_1
*I *149:Y O *D sky130_fd_sc_hd__nor2_1
*CAP
1 *151:A2 0.000121628
2 *149:Y 0.000121628
3 *151:A2 *151:A1 2.75229e-05
4 *151:A2 *28:21 4.43871e-06
5 *151:A2 *28:38 3.98952e-05
*RES
1 *149:Y *151:A2 9.375 
*END

*D_NET *14 0.00150778
*CONN
*I *160:C I *D sky130_fd_sc_hd__nor4b_1
*I *151:B1 I *D sky130_fd_sc_hd__o21a_1
*I *150:Y O *D sky130_fd_sc_hd__nand2_1
*CAP
1 *160:C 0.000405932
2 *151:B1 0.000138564
3 *150:Y 0
4 *14:6 0.000544497
5 *151:B1 *151:A1 3.00381e-05
6 *151:B1 *152:A1 4.82919e-05
7 *151:B1 *24:31 0.000111324
8 *151:B1 *28:38 6.10014e-05
9 *160:C *27:16 0.000161893
10 *149:B *151:B1 6.23541e-06
*RES
1 *150:Y *14:6 3.6 
2 *14:6 *151:B1 6.705 
3 *14:6 *160:C 10.545 
*END

*D_NET *15 0.0006479
*CONN
*I *152:B1 I *D sky130_fd_sc_hd__o32ai_1
*I *151:X O *D sky130_fd_sc_hd__o21a_1
*CAP
1 *152:B1 0.000177149
2 *151:X 0.000177149
3 *152:B1 *151:A1 4.82919e-05
4 *152:B1 *152:A1 7.28275e-05
5 *152:B1 *152:B2 8.23457e-05
6 *152:A3 *152:B1 2.11323e-05
7 *11:34 *152:B1 6.90044e-05
*RES
1 *151:X *152:B1 6.875 
*END

*D_NET *16 0.000824529
*CONN
*I *156:A0 I *D sky130_fd_sc_hd__mux2_1
*I *153:Y O *D sky130_fd_sc_hd__a21oi_1
*CAP
1 *156:A0 0.00029082
2 *153:Y 0.00029082
3 *156:A0 *148:A 1.61831e-05
4 *156:A0 *153:A1 9.53428e-06
5 *156:A0 *156:S 1.22762e-05
6 *156:A0 *17:12 0.00013521
7 *156:A0 *25:14 0
8 *156:A0 *25:20 4.9253e-06
9 *153:A2 *156:A0 6.47594e-05
10 *159:A1 *156:A0 0
11 *12:12 *156:A0 0
*RES
1 *153:Y *156:A0 12.45 
*END

*D_NET *17 0.00132833
*CONN
*I *159:A2 I *D sky130_fd_sc_hd__o21a_1
*I *156:A1 I *D sky130_fd_sc_hd__mux2_1
*I *154:X O *D sky130_fd_sc_hd__and2b_1
*CAP
1 *159:A2 0.000203678
2 *156:A1 0
3 *154:X 0.000199594
4 *17:12 0.000403272
5 *159:A2 *152:B2 9.13547e-05
6 *159:A2 *156:S 6.88421e-05
7 *159:A2 *25:8 0
8 *17:12 *147:A 7.60965e-05
9 *17:12 *156:S 0
10 *17:12 *25:8 2.24423e-05
11 *17:12 *25:14 1.73506e-05
12 *156:A0 *17:12 0.00013521
13 *159:A1 *159:A2 0.000110492
*RES
1 *154:X *17:12 8.885 
2 *17:12 *156:A1 1.6 
3 *17:12 *159:A2 8.81 
*END

*D_NET *18 0.00148306
*CONN
*I *156:S I *D sky130_fd_sc_hd__mux2_1
*I *155:Y O *D sky130_fd_sc_hd__o21ai_1
*CAP
1 *156:S 0.000444476
2 *155:Y 0.000444476
3 *156:S *152:B2 0.000193313
4 *156:S *159:B1 0.000264583
5 *156:S *25:8 0
6 *155:A2 *156:S 2.06295e-05
7 *156:A0 *156:S 1.22762e-05
8 *159:A1 *156:S 3.446e-05
9 *159:A2 *156:S 6.88421e-05
10 *17:12 *156:S 0
*RES
1 *155:Y *156:S 14.25 
*END

*D_NET *19 0.00182023
*CONN
*I *157:A I *D sky130_fd_sc_hd__clkbuf_1
*I *156:X O *D sky130_fd_sc_hd__mux2_1
*CAP
1 *157:A 0.000456825
2 *156:X 0.000456825
3 *157:A *152:B2 0.000158539
4 *157:A *163:A 0
5 *157:A *165:D 0.000557224
6 *159:A1 *157:A 0.000190816
*RES
1 *156:X *157:A 17.34 
*END

*D_NET *20 0.00141564
*CONN
*I *159:B1 I *D sky130_fd_sc_hd__o21a_1
*I *158:X O *D sky130_fd_sc_hd__mux2_1
*CAP
1 *159:B1 0.000382443
2 *158:X 0.000382443
3 *159:B1 *155:A1 1.91597e-05
4 *159:B1 *165:D 0.000175853
5 *155:A2 *159:B1 4.66108e-05
6 *156:S *159:B1 0.000264583
7 *158:A0 *159:B1 9.60582e-07
8 *159:A1 *159:B1 0
9 *11:17 *159:B1 4.61007e-06
10 *11:23 *159:B1 6.88421e-05
11 *12:12 *159:B1 7.01303e-05
*RES
1 *158:X *159:B1 14.595 
*END

*D_NET *21 0.00289711
*CONN
*I *169:A I *D sky130_fd_sc_hd__clkbuf_16
*I *170:A I *D sky130_fd_sc_hd__clkbuf_16
*I *168:X O *D sky130_fd_sc_hd__clkbuf_16
*CAP
1 *169:A 0.000378945
2 *170:A 0.000355981
3 *168:X 0.000245088
4 *21:6 0.000980014
5 *169:A *167:D 0.000141606
6 *169:A *25:8 0.000121224
7 *169:A *25:14 6.60266e-05
8 *169:A *25:20 0.000105068
9 *169:A *26:14 3.86529e-05
10 *170:A *163:A 0.000201503
11 *170:A *25:8 0
12 *21:6 *163:A 0.000263002
13 *166:RESET_B *170:A 0
14 *167:RESET_B *169:A 0
15 *168:A *169:A 0
*RES
1 *168:X *21:6 4.81 
2 *21:6 *170:A 11.105 
3 *21:6 *169:A 14.12 
*END

*D_NET *22 0.00154437
*CONN
*I *166:CLK I *D sky130_fd_sc_hd__dfrtp_1
*I *167:CLK I *D sky130_fd_sc_hd__dfrtp_1
*I *169:X O *D sky130_fd_sc_hd__clkbuf_16
*CAP
1 *166:CLK 0.000443554
2 *167:CLK 0
3 *169:X 0.00032863
4 *22:10 0.000772184
5 *167:RESET_B *166:CLK 0
*RES
1 *169:X *22:10 8.415 
2 *22:10 *167:CLK 3.6 
3 *22:10 *166:CLK 10.71 
*END

*D_NET *23 0.00109274
*CONN
*I *165:CLK I *D sky130_fd_sc_hd__dfrtp_2
*I *164:CLK I *D sky130_fd_sc_hd__dfxtp_1
*I *170:X O *D sky130_fd_sc_hd__clkbuf_16
*CAP
1 *165:CLK 1.85694e-05
2 *164:CLK 0.000268404
3 *170:X 9.50797e-05
4 *23:14 0.000382053
5 *164:CLK *162:A 0.000239807
6 *23:14 *162:A 4.05358e-05
7 *166:RESET_B *164:CLK 4.82919e-05
*RES
1 *170:X *23:14 7.28 
2 *23:14 *164:CLK 6.205 
3 *23:14 *165:CLK 1.96 
*END

*D_NET *24 0.00531737
*CONN
*I *160:D_N I *D sky130_fd_sc_hd__nor4b_1
*I *151:A1 I *D sky130_fd_sc_hd__o21a_1
*I *158:A1 I *D sky130_fd_sc_hd__mux2_1
*I *148:B I *D sky130_fd_sc_hd__nor2_1
*I *153:A1 I *D sky130_fd_sc_hd__a21oi_1
*I *155:A1 I *D sky130_fd_sc_hd__o21ai_1
*I *165:Q O *D sky130_fd_sc_hd__dfrtp_2
*CAP
1 *160:D_N 1.02819e-05
2 *151:A1 0.000147666
3 *158:A1 6.81553e-05
4 *148:B 0
5 *153:A1 0.00016383
6 *155:A1 6.18514e-05
7 *165:Q 0.000353261
8 *24:39 0.000501444
9 *24:33 0.00050255
10 *24:31 0.000472497
11 *24:14 0.000551578
12 *24:10 0.000625219
13 *151:A1 *152:A1 2.7441e-05
14 *153:A1 *148:A 0.000122503
15 *160:D_N *160:A 4.77757e-05
16 *160:D_N *27:20 4.77757e-05
17 *24:10 *165:D 0.000198286
18 *24:14 *165:D 0.000522176
19 *24:31 *155:B1 0.000122797
20 *24:31 *28:21 0
21 *24:33 *28:8 0
22 *24:33 *28:21 0
23 *24:39 *28:8 0
24 *149:B *24:31 9.70677e-05
25 *150:B *24:31 2.49909e-05
26 *151:A2 *151:A1 2.75229e-05
27 *151:B1 *151:A1 3.00381e-05
28 *151:B1 *24:31 0.000111324
29 *152:B1 *151:A1 4.82919e-05
30 *155:A2 *155:A1 4.77757e-05
31 *155:A2 *24:31 3.4465e-05
32 *156:A0 *153:A1 9.53428e-06
33 *158:A0 *158:A1 1.08758e-05
34 *159:B1 *155:A1 1.91597e-05
35 *165:RESET_B *24:10 2.40101e-05
36 *11:23 *24:39 0
37 *11:34 *24:31 0.000187477
38 *11:34 *24:33 2.97802e-05
39 *12:12 *153:A1 1.5567e-05
40 *12:12 *24:39 5.2397e-05
*RES
1 *165:Q *24:10 9.555 
2 *24:10 *24:14 7.97 
3 *24:14 *155:A1 2.755 
4 *24:14 *24:31 7.445 
5 *24:31 *24:33 1.635 
6 *24:33 *24:39 7.01 
7 *24:39 *153:A1 4.84 
8 *24:39 *148:B 1.6 
9 *24:33 *158:A1 4.665 
10 *24:31 *151:A1 6.135 
11 *24:10 *160:D_N 4.05 
*END

*D_NET *25 0.0043951
*CONN
*I *160:A I *D sky130_fd_sc_hd__nor4b_1
*I *152:B2 I *D sky130_fd_sc_hd__o32ai_1
*I *154:B I *D sky130_fd_sc_hd__and2b_1
*I *148:A I *D sky130_fd_sc_hd__nor2_1
*I *153:B1 I *D sky130_fd_sc_hd__a21oi_1
*I *166:Q O *D sky130_fd_sc_hd__dfrtp_1
*CAP
1 *160:A 0.000422561
2 *152:B2 0.000238413
3 *154:B 0
4 *148:A 0.00016131
5 *153:B1 0
6 *166:Q 0
7 *25:20 0.000363635
8 *25:14 0.000306697
9 *25:8 0.000674126
10 *25:6 0.000753901
11 *160:A *163:A 0
12 *160:A *27:20 0.000238398
13 *25:8 *163:A 0
14 *25:8 *167:D 5.99925e-05
15 *25:14 *167:D 1.71013e-05
16 *152:A3 *152:B2 5.83121e-06
17 *152:B1 *152:B2 8.23457e-05
18 *153:A1 *148:A 0.000122503
19 *156:A0 *148:A 1.61831e-05
20 *156:A0 *25:14 0
21 *156:A0 *25:20 4.9253e-06
22 *156:S *152:B2 0.000193313
23 *156:S *25:8 0
24 *157:A *152:B2 0.000158539
25 *159:A1 *152:B2 4.35348e-05
26 *159:A2 *152:B2 9.13547e-05
27 *159:A2 *25:8 0
28 *160:D_N *160:A 4.77757e-05
29 *164:D *160:A 6.05513e-05
30 *166:RESET_B *160:A 0
31 *166:RESET_B *25:8 0
32 *169:A *25:8 0.000121224
33 *169:A *25:14 6.60266e-05
34 *169:A *25:20 0.000105068
35 *170:A *25:8 0
36 *17:12 *25:8 2.24423e-05
37 *17:12 *25:14 1.73506e-05
*RES
1 *166:Q *25:6 3.6 
2 *25:6 *25:8 6.735 
3 *25:8 *25:14 2.445 
4 *25:14 *25:20 5.63 
5 *25:20 *153:B1 1.6 
6 *25:20 *148:A 4.48 
7 *25:14 *154:B 3.6 
8 *25:8 *152:B2 9.93 
9 *25:6 *160:A 10.71 
*END

*D_NET *26 0.000954762
*CONN
*I *147:A I *D sky130_fd_sc_hd__clkbuf_2
*I *154:A_N I *D sky130_fd_sc_hd__and2b_1
*I *167:Q O *D sky130_fd_sc_hd__dfrtp_1
*CAP
1 *147:A 0.000245619
2 *154:A_N 0
3 *167:Q 0.000150374
4 *26:14 0.000395992
5 *26:14 *167:D 4.80285e-05
6 *169:A *26:14 3.86529e-05
7 *17:12 *147:A 7.60965e-05
*RES
1 *167:Q *26:14 7.88 
2 *26:14 *154:A_N 1.6 
3 *26:14 *147:A 5.515 
*END

*D_NET *27 0.00485352
*CONN
*I *161:A I *D sky130_fd_sc_hd__inv_2
*I *160:B I *D sky130_fd_sc_hd__nor4b_1
*I *162:A I *D sky130_fd_sc_hd__inv_2
*I *163:A I *D sky130_fd_sc_hd__inv_2
*I *171:X O *D sky130_fd_sc_hd__clkbuf_2
*CAP
1 *161:A 0
2 *160:B 0
3 *162:A 0.000202982
4 *163:A 0.00051424
5 *171:X 0.000521106
6 *27:20 0.000821764
7 *27:16 0.000206324
8 *27:14 0.000622888
9 *162:A *165:D 0
10 *163:A *165:D 0
11 *157:A *163:A 0
12 *160:A *163:A 0
13 *160:A *27:20 0.000238398
14 *160:C *27:16 0.000161893
15 *160:D_N *27:20 4.77757e-05
16 *164:CLK *162:A 0.000239807
17 *164:D *27:16 0.000124473
18 *164:D *27:20 0.000495962
19 *165:RESET_B *27:14 0
20 *165:RESET_B *27:16 5.30673e-05
21 *166:RESET_B *162:A 0
22 *166:RESET_B *163:A 0
23 *168:A *163:A 9.78003e-05
24 *170:A *163:A 0.000201503
25 *21:6 *163:A 0.000263002
26 *23:14 *162:A 4.05358e-05
27 *25:8 *163:A 0
*RES
1 *171:X *27:14 13.94 
2 *27:14 *27:16 2.865 
3 *27:16 *27:20 6.59 
4 *27:20 *163:A 13.17 
5 *27:20 *162:A 7.665 
6 *27:16 *160:B 1.6 
7 *27:14 *161:A 1.6 
*END

*D_NET *28 0.00294759
*CONN
*I *149:A I *D sky130_fd_sc_hd__nor2_1
*I *150:A I *D sky130_fd_sc_hd__nand2_1
*I *155:B1 I *D sky130_fd_sc_hd__o21ai_1
*I *152:A1 I *D sky130_fd_sc_hd__o32ai_1
*I *158:S I *D sky130_fd_sc_hd__mux2_1
*I *172:X O *D sky130_fd_sc_hd__dlymetal6s2s_1
*CAP
1 *149:A 0.000102772
2 *150:A 2.42691e-05
3 *155:B1 0.000246264
4 *152:A1 0.000162933
5 *158:S 5.66458e-05
6 *172:X 0.000259466
7 *28:55 0.000147851
8 *28:38 0.000325932
9 *28:21 0.000400218
10 *28:8 0.000494539
11 *149:B *149:A 3.77818e-05
12 *149:B *150:A 3.54536e-05
13 *149:B *155:B1 3.81943e-05
14 *150:B *155:B1 4.08514e-05
15 *151:A1 *152:A1 2.7441e-05
16 *151:A2 *28:21 4.43871e-06
17 *151:A2 *28:38 3.98952e-05
18 *151:B1 *152:A1 4.82919e-05
19 *151:B1 *28:38 6.10014e-05
20 *152:B1 *152:A1 7.28275e-05
21 *155:A2 *155:B1 0.000147788
22 *11:34 *155:B1 4.9937e-05
23 *24:31 *155:B1 0.000122797
24 *24:31 *28:21 0
25 *24:33 *28:8 0
26 *24:33 *28:21 0
27 *24:39 *28:8 0
*RES
1 *172:X *28:8 7.785 
2 *28:8 *158:S 4.395 
3 *28:8 *28:21 2.595 
4 *28:21 *152:A1 6.495 
5 *28:21 *28:38 3.38 
6 *28:38 *155:B1 9.785 
7 *28:38 *28:55 0.36 
8 *28:55 *150:A 2.41 
9 *28:55 *149:A 3.445 
*END

*D_NET *29 0.0015125
*CONN
*I *173:A I *D sky130_fd_sc_hd__buf_12
*I *164:Q O *D sky130_fd_sc_hd__dfxtp_1
*CAP
1 *173:A 0.000741454
2 *164:Q 0.000741454
3 *164:D *173:A 2.95901e-05
*RES
1 *164:Q *173:A 16.83 
*END

*D_NET *30 0.00254771
*CONN
*I *165:D I *D sky130_fd_sc_hd__dfrtp_2
*I *152:Y O *D sky130_fd_sc_hd__o32ai_1
*CAP
1 *165:D 0.000547086
2 *152:Y 0.000547086
3 *157:A *165:D 0.000557224
4 *159:B1 *165:D 0.000175853
5 *162:A *165:D 0
6 *163:A *165:D 0
7 *24:10 *165:D 0.000198286
8 *24:14 *165:D 0.000522176
*RES
1 *152:Y *165:D 20.4037 
*END

*D_NET *31 0.00100852
*CONN
*I *166:D I *D sky130_fd_sc_hd__dfrtp_1
*I *157:X O *D sky130_fd_sc_hd__clkbuf_1
*CAP
1 *166:D 0.000504262
2 *157:X 0.000504262
*RES
1 *157:X *166:D 10.565 
*END

*D_NET *32 0.00154022
*CONN
*I *167:D I *D sky130_fd_sc_hd__dfrtp_1
*I *159:X O *D sky130_fd_sc_hd__o21a_1
*CAP
1 *167:D 0.000636744
2 *159:X 0.000636744
3 *169:A *167:D 0.000141606
4 *25:8 *167:D 5.99925e-05
5 *25:14 *167:D 1.71013e-05
6 *26:14 *167:D 4.80285e-05
*RES
1 *159:X *167:D 16.98 
*END
